Version 4
SHEET 1 880 680
WIRE 448 256 400 256
WIRE 544 256 448 256
WIRE 544 400 400 400
WIRE 400 432 400 400
FLAG 448 256 OUT_M
FLAG 544 256 OUT_M
IOPIN 544 256 Out
FLAG 544 400 GND
IOPIN 544 400 In
